* NGSPICE file created from asic_flat.ext - technology: sky130A

.subckt asic_flat ua[0] ua[1] ua[2] ua[3] ua[4] ua[5] VGND VAPWR
X0 a_9577_9007.t4 a_9039_8199.t2 a_9039_8199.t3 VAPWR.t28 sky130_fd_pr__pfet_g5v0d10v5 ad=0 pd=0 as=0 ps=0 w=2.5 l=2.4
**devattr s=29000,1116 d=29000,1116
X1 VGND.t78 VGND.t86 BIAS_1_0.XQ12.Emitter sky130_fd_pr__pnp_05v5_W3p40L3p40
**devattr s=462400,2720
X2 a_3378_41806# a_3378_35748# VGND.t7 sky130_fd_pr__res_xhigh_po_0p35 l=25
X3 VAPWR.t8 ua[5].t0 a_12179_10665# VAPWR.t7 sky130_fd_pr__pfet_g5v0d10v5 ad=0 pd=0 as=0.145 ps=1.29 w=1 l=0.5
**devattr s=5800,258 d=5800,258
X4 a_4562_41806# a_4858_35748# VGND.t31 sky130_fd_pr__res_xhigh_po_0p35 l=25
X5 a_2786_41806# a_2786_35748# VGND.t21 sky130_fd_pr__res_xhigh_po_0p35 l=25
X6 a_5450_35748# a_5450_30348# VGND.t10 sky130_fd_pr__res_xhigh_po_0p35 l=25
X7 Timming_0.Vd.t23 a_16597_7688.t14 a_16597_7688.t15 VGND.t104 sky130_fd_pr__nfet_g5v0d10v5 ad=0 pd=0 as=0 ps=0 w=10 l=0.5
**devattr s=58000,2058 d=58000,2058
X8 VCR_0.VT.t9 ua[2].t2 VGND.t56 VGND.t55 sky130_fd_pr__nfet_g5v0d10v5 ad=0 pd=0 as=0 ps=0 w=5 l=1
**devattr s=29000,1058 d=29000,1058
X9 a_7586_26267# a_9886_26267# VGND.t6 sky130_fd_pr__res_xhigh_po_0p35 l=9.5
X10 a_9886_25971# a_12844_25971# VGND.t1 sky130_fd_pr__res_xhigh_po_0p35 l=9.5
X11 a_10404_14647.t6 a_6404_16954.t4 a_6404_16954.t5 VAPWR.t1 sky130_fd_pr__pfet_g5v0d10v5 ad=0 pd=0 as=0 ps=0 w=10 l=20
**devattr s=116000,4116 d=116000,4116
X12 VGND.t24 ua[2].t3 VCR_0.VT.t8 VGND.t23 sky130_fd_pr__nfet_g5v0d10v5 ad=0 pd=0 as=0 ps=0 w=5 l=1
**devattr s=29000,1058 d=29000,1058
X13 Timming_0.Vd.t22 a_16597_7688.t20 a_16597_7688.t21 VGND.t54 sky130_fd_pr__nfet_g5v0d10v5 ad=0 pd=0 as=0 ps=0 w=10 l=0.5
**devattr s=58000,2058 d=58000,2058
X14 a_12495_10665# latch_sch_0.Qn.t4 VAPWR.t37 VAPWR.t36 sky130_fd_pr__pfet_g5v0d10v5 ad=0.145 pd=1.29 as=0 ps=0 w=1 l=0.5
**devattr s=5800,258 d=5800,258
X15 ua[0].t7 a_21737_7899.t3 VAPWR.t10 VAPWR.t9 sky130_fd_pr__pfet_g5v0d10v5 ad=0 pd=0 as=0 ps=0 w=8.5 l=1
**devattr s=49300,1758 d=49300,1758
X16 a_7586_27451# a_9886_27747# VGND.t6 sky130_fd_pr__res_xhigh_po_0p35 l=9.5
X17 VGND.t73 a_5453_6051.t3 a_5453_6051.t4 VGND.t35 sky130_fd_pr__nfet_g5v0d10v5 ad=0 pd=0 as=0 ps=0 w=1 l=6
**devattr s=11600,516 d=11600,516
X18 a_5154_35748# a_4858_30348# VGND.t72 sky130_fd_pr__res_xhigh_po_0p35 l=25
X19 ua[0].t6 a_21737_7899.t4 VAPWR.t17 VAPWR.t16 sky130_fd_pr__pfet_g5v0d10v5 ad=0 pd=0 as=0 ps=0 w=8.5 l=1
**devattr s=98600,3516 d=49300,1758
X20 a_3082_35748# a_3082_30348# VGND.t9 sky130_fd_pr__res_xhigh_po_0p35 l=25
X21 a_4562_35748# a_4266_30348# VGND.t17 sky130_fd_pr__res_xhigh_po_0p35 l=25
X22 latch_sch_0.R.t0 a_5453_6051.t8 VGND.t43 VGND.t42 sky130_fd_pr__nfet_g5v0d10v5 ad=0 pd=0 as=0 ps=0 w=1 l=2.2
**devattr s=11600,516 d=11600,516
X23 a_3970_35748# a_3674_30348# VGND.t16 sky130_fd_pr__res_xhigh_po_0p35 l=25
X24 a_9886_27451# a_12844_27155# VGND.t1 sky130_fd_pr__res_xhigh_po_0p35 l=9.5
X25 VGND.t78 VGND.t85 BIAS_1_0.XQ12.Emitter sky130_fd_pr__pnp_05v5_W3p40L3p40
**devattr s=462400,2720
X26 a_6404_16954.t3 a_6404_16954.t2 a_10404_14647.t5 VAPWR.t3 sky130_fd_pr__pfet_g5v0d10v5 ad=0 pd=0 as=0 ps=0 w=10 l=20
**devattr s=116000,4116 d=116000,4116
X27 a_7586_25083# a_9886_25379# VGND.t6 sky130_fd_pr__res_xhigh_po_0p35 l=9.5
X28 VGND.t67 a_5453_6051.t9 a_5453_6767.t3 VGND.t35 sky130_fd_pr__nfet_g5v0d10v5 ad=0 pd=0 as=0 ps=0 w=1 l=6
**devattr s=11600,516 d=11600,516
X29 VGND.t78 VGND.t84 BIAS_1_0.XQ12.Emitter sky130_fd_pr__pnp_05v5_W3p40L3p40
**devattr s=462400,2720
X30 a_7586_26859# a_9886_26859# VGND.t6 sky130_fd_pr__res_xhigh_po_0p35 l=9.5
X31 a_20802_14722.t1 VGND.t109 sky130_fd_pr__cap_mim_m3_1 l=27.5 w=27.5
X32 VGND.t78 VGND.t83 BIAS_1_0.XQ12.Emitter sky130_fd_pr__pnp_05v5_W3p40L3p40
**devattr s=462400,2720
X33 a_16169_6107# a_15873_2607# VGND.t11 sky130_fd_pr__res_xhigh_po_0p35 l=15.5
X34 a_4266_35748# a_4266_30348# VGND.t8 sky130_fd_pr__res_xhigh_po_0p35 l=25
X35 a_9886_25083# a_11336_20947# VGND.t1 sky130_fd_pr__res_xhigh_po_0p35 l=9.5
X36 a_16597_7688.t39 a_16597_7688.t38 Timming_0.Vd.t21 VGND.t103 sky130_fd_pr__nfet_g5v0d10v5 ad=0 pd=0 as=0 ps=0 w=10 l=0.5
**devattr s=58000,2058 d=58000,2058
X37 Timming_0.Vd.t20 a_16597_7688.t36 a_16597_7688.t37 VGND.t74 sky130_fd_pr__nfet_g5v0d10v5 ad=0 pd=0 as=0 ps=0 w=10 l=0.5
**devattr s=58000,2058 d=58000,2058
X38 a_3674_35748# a_3674_30348# VGND.t12 sky130_fd_pr__res_xhigh_po_0p35 l=25
X39 VAPWR.t23 a_21737_7899.t5 ua[0].t5 VAPWR.t22 sky130_fd_pr__pfet_g5v0d10v5 ad=0 pd=0 as=0 ps=0 w=8.5 l=1
**devattr s=49300,1758 d=49300,1758
X40 a_15873_10265# Timming_0.Vd.t0 VGND.t11 sky130_fd_pr__res_xhigh_po_0p35 l=15.5
X41 a_14097_6107# a_14097_2607# VGND.t106 sky130_fd_pr__res_xhigh_po_0p35 l=15.5
X42 a_5453_6051.t7 COMP_2_0.vin_n.t2 a_6061_11160.t1 VAPWR.t15 sky130_fd_pr__pfet_g5v0d10v5 ad=0 pd=0 as=0 ps=0 w=2.5 l=2.4
**devattr s=29000,1116 d=29000,1116
X43 a_9886_26563# a_12844_26563# VGND.t1 sky130_fd_pr__res_xhigh_po_0p35 l=9.5
X44 a_14097_10265# a_14097_6107# VGND.t106 sky130_fd_pr__res_xhigh_po_0p35 l=15.5
X45 latch_sch_0.Qn.t3 ua[5].t1 VGND.t64 VGND.t63 sky130_fd_pr__nfet_g5v0d10v5 ad=0 pd=0 as=0 ps=0 w=1 l=0.5
**devattr s=11600,516 d=11600,516
X46 a_10404_14647.t0 delay_1_0.vd_n.t1 VAPWR.t5 VAPWR.t4 sky130_fd_pr__pfet_g5v0d10v5 ad=0 pd=0 as=0 ps=0 w=1 l=9.95
**devattr s=11600,516 d=11600,516
X47 VGND.t116 ua[2].t4 VCR_0.VT.t7 VGND.t115 sky130_fd_pr__nfet_g5v0d10v5 ad=0 pd=0 as=0 ps=0 w=5 l=1
**devattr s=29000,1058 d=29000,1058
X48 a_17267_7131# ua[3].t0 a_17853_5073# VGND.t98 sky130_fd_pr__nfet_05v0_nvt ad=0.29 pd=2.58 as=0.29 ps=2.58 w=1 l=10
**devattr s=11600,516 d=11600,516
X49 VGND.t129 latch_sch_0.Qn.t5 Timming_0.Vd.t25 VGND.t128 sky130_fd_pr__nfet_g5v0d10v5 ad=0 pd=0 as=0 ps=0 w=1 l=0.5
**devattr s=11600,516 d=11600,516
X50 a_19306_5807# a_17853_5073# VGND.t20 sky130_fd_pr__res_xhigh_po_0p35 l=14
X51 a_3378_35748# a_3082_30348# VGND.t7 sky130_fd_pr__res_xhigh_po_0p35 l=25
X52 a_16597_7688.t35 a_16597_7688.t34 Timming_0.Vd.t19 VGND.t48 sky130_fd_pr__nfet_g5v0d10v5 ad=0 pd=0 as=0 ps=0 w=10 l=0.5
**devattr s=58000,2058 d=58000,2058
X53 a_2786_35748# latch_sch_0.Qn.t0 VGND.t21 sky130_fd_pr__res_xhigh_po_0p35 l=25
X54 a_4858_35748# a_4858_30348# VGND.t31 sky130_fd_pr__res_xhigh_po_0p35 l=25
X55 latch_sch_0.R.t2 a_9039_8199.t5 a_9577_9007.t5 VAPWR.t27 sky130_fd_pr__pfet_g5v0d10v5 ad=0 pd=0 as=0 ps=0 w=2.5 l=2.4
**devattr s=29000,1116 d=29000,1116
X56 VGND.t18 VGND.t19 VGND.t1 sky130_fd_pr__res_xhigh_po_0p35 l=9.5
X57 a_18714_5807# ua[2].t1 VGND.t130 sky130_fd_pr__res_xhigh_po_0p35 l=14
X58 a_6404_16954.t0 a_11329_22619.t7 a_11336_20947# VGND.t22 sky130_fd_pr__nfet_g5v0d10v5 ad=0 pd=0 as=1.45 ps=10.58 w=5 l=20
**devattr s=58000,2116 d=58000,2116
X59 a_9886_25675# a_12844_25379# VGND.t1 sky130_fd_pr__res_xhigh_po_0p35 l=9.5
X60 ua[0].t4 a_21737_7899.t6 VAPWR.t21 VAPWR.t20 sky130_fd_pr__pfet_g5v0d10v5 ad=0 pd=0 as=0 ps=0 w=8.5 l=1
**devattr s=49300,1758 d=49300,1758
X61 a_5453_6767.t7 a_5453_6767.t6 VGND.t75 VGND.t46 sky130_fd_pr__nfet_g5v0d10v5 ad=0 pd=0 as=0 ps=0 w=1 l=6
**devattr s=11600,516 d=11600,516
X62 a_16597_7688.t3 a_16597_7688.t2 Timming_0.Vd.t18 VGND.t114 sky130_fd_pr__nfet_g5v0d10v5 ad=0 pd=0 as=0 ps=0 w=10 l=0.5
**devattr s=58000,2058 d=58000,2058
X63 Timming_0.Vd.t1 latch_sch_0.R.t3 VGND.t27 VGND.t26 sky130_fd_pr__nfet_g5v0d10v5 ad=0 pd=0 as=0 ps=0 w=1 l=0.5
**devattr s=11600,516 d=11600,516
X64 a_17267_7131# ua[3].t1 a_16681_5073# VGND.t51 sky130_fd_pr__nfet_05v0_nvt ad=0.29 pd=2.58 as=0.29 ps=2.58 w=1 l=10
**devattr s=11600,516 d=11600,516
X65 VGND.t4 Timming_0.Vd.t26 latch_sch_0.Qn.t2 VGND.t3 sky130_fd_pr__nfet_g5v0d10v5 ad=0 pd=0 as=0 ps=0 w=1 l=0.5
**devattr s=11600,516 d=11600,516
X66 VGND.t78 VGND.t82 BIAS_1_0.XQ12.Emitter sky130_fd_pr__pnp_05v5_W3p40L3p40
**devattr s=462400,2720
X67 a_9886_27155# a_12844_27155# VGND.t1 sky130_fd_pr__res_xhigh_po_0p35 l=9.5
X68 a_11329_22619.t0 a_20802_14722.t2 a_10404_14647.t1 VAPWR.t14 sky130_fd_pr__pfet_g5v0d10v5 ad=0 pd=0 as=0 ps=0 w=0.5 l=20
**devattr s=5800,316 d=5800,316
X69 a_16597_7688.t41 a_16597_7688.t40 Timming_0.Vd.t17 VGND.t91 sky130_fd_pr__nfet_g5v0d10v5 ad=0 pd=0 as=0 ps=0 w=10 l=0.5
**devattr s=58000,2058 d=116000,4116
X70 Timming_0.Vd.t16 a_16597_7688.t18 a_16597_7688.t19 VGND.t37 sky130_fd_pr__nfet_g5v0d10v5 ad=0 pd=0 as=0 ps=0 w=10 l=0.5
**devattr s=58000,2058 d=58000,2058
X71 VGND.t121 VGND.t122 VGND.t1 sky130_fd_pr__res_xhigh_po_0p35 l=9.5
X72 a_10404_14647.t7 a_6404_16954.t6 a_11329_22619.t2 VAPWR.t1 sky130_fd_pr__pfet_g5v0d10v5 ad=0 pd=0 as=0 ps=0 w=10 l=20
**devattr s=116000,4116 d=116000,4116
X73 a_20802_14722.t3 VGND.t93 sky130_fd_pr__cap_mim_m3_1 l=27.5 w=27.5
X74 VAPWR.t39 a_21737_7899.t7 ua[0].t3 VAPWR.t38 sky130_fd_pr__pfet_g5v0d10v5 ad=0 pd=0 as=0 ps=0 w=8.5 l=1
**devattr s=49300,1758 d=49300,1758
X75 Timming_0.Vd.t24 latch_sch_0.R.t4 a_12495_10665# VAPWR.t31 sky130_fd_pr__pfet_g5v0d10v5 ad=0 pd=0 as=0.145 ps=1.29 w=1 l=0.5
**devattr s=5800,258 d=11600,516
X76 a_16597_7688.t44 ua[3].t2 a_16681_5073# VGND.t76 sky130_fd_pr__nfet_05v0_nvt ad=0 pd=0 as=0.29 ps=2.58 w=1 l=10
**devattr s=11600,516 d=11600,516
X77 a_5453_6051.t5 a_5453_6767.t8 VGND.t47 VGND.t46 sky130_fd_pr__nfet_g5v0d10v5 ad=0 pd=0 as=0 ps=0 w=1 l=6
**devattr s=11600,516 d=11600,516
X78 VGND.t78 VGND.t81 BIAS_1_0.XQ12.Emitter sky130_fd_pr__pnp_05v5_W3p40L3p40
**devattr s=462400,2720
X79 delay_1_0.vd_n.t0 VGND.t131 a_8279_30718# VAPWR.t26 sky130_fd_pr__pfet_g5v0d10v5 ad=0 pd=0 as=0.29 ps=2.58 w=1 l=10
**devattr s=11600,516 d=11600,516
X80 a_14985_6107# a_15281_2607# VGND.t33 sky130_fd_pr__res_xhigh_po_0p35 l=15.5
X81 a_5453_6767.t0 VCR_0.VT.t11 a_6061_11160.t3 VAPWR.t15 sky130_fd_pr__pfet_g5v0d10v5 ad=0 pd=0 as=0 ps=0 w=2.5 l=2.4
**devattr s=29000,1116 d=29000,1116
X82 Timming_0.Vd.t15 a_16597_7688.t6 a_16597_7688.t7 VGND.t62 sky130_fd_pr__nfet_g5v0d10v5 ad=0 pd=0 as=0 ps=0 w=10 l=0.5
**devattr s=58000,2058 d=58000,2058
X83 delay_1_0.vd_n.t2 VGND.t102 sky130_fd_pr__cap_mim_m3_1 l=30 w=30
X84 a_16597_7688.t5 a_16597_7688.t4 Timming_0.Vd.t14 VGND.t59 sky130_fd_pr__nfet_g5v0d10v5 ad=0 pd=0 as=0 ps=0 w=10 l=0.5
**devattr s=58000,2058 d=58000,2058
X85 Timming_0.Vd.t13 a_16597_7688.t8 a_16597_7688.t9 VGND.t125 sky130_fd_pr__nfet_g5v0d10v5 ad=0 pd=0 as=0 ps=0 w=10 l=0.5
**devattr s=116000,4116 d=58000,2058
X86 a_15281_10265# a_14985_6765# VGND.t33 sky130_fd_pr__res_xhigh_po_0p35 l=15.5
X87 a_6061_11160.t2 VCR_0.VT.t12 a_5453_6767.t1 VAPWR.t0 sky130_fd_pr__pfet_g5v0d10v5 ad=0 pd=0 as=0 ps=0 w=2.5 l=2.4
**devattr s=29000,1116 d=29000,1116
X88 a_9886_26267# a_12844_25971# VGND.t1 sky130_fd_pr__res_xhigh_po_0p35 l=9.5
X89 VGND.t39 ua[2].t5 VCR_0.VT.t6 VGND.t38 sky130_fd_pr__nfet_g5v0d10v5 ad=0 pd=0 as=0 ps=0 w=5 l=1
**devattr s=29000,1058 d=58000,2116
X90 a_15577_6107# a_15281_2607# VGND.t32 sky130_fd_pr__res_xhigh_po_0p35 l=15.5
X91 a_14393_6107# a_14097_2607# VGND.t45 sky130_fd_pr__res_xhigh_po_0p35 l=15.5
X92 a_9577_9007.t2 a_9039_8199.t6 latch_sch_0.R.t1 VAPWR.t28 sky130_fd_pr__pfet_g5v0d10v5 ad=0 pd=0 as=0 ps=0 w=2.5 l=2.4
**devattr s=29000,1116 d=29000,1116
X93 VCR_0.VT.t5 ua[2].t6 VGND.t61 VGND.t60 sky130_fd_pr__nfet_g5v0d10v5 ad=0 pd=0 as=0 ps=0 w=5 l=1
**devattr s=29000,1058 d=29000,1058
X94 a_15281_10265# a_15577_6765# VGND.t32 sky130_fd_pr__res_xhigh_po_0p35 l=15.5
X95 a_14097_10265# a_14393_6765# VGND.t45 sky130_fd_pr__res_xhigh_po_0p35 l=15.5
X96 a_9886_27747# BIAS_1_0.XQ12.Emitter VGND.t1 sky130_fd_pr__res_xhigh_po_0p35 l=9.5
X97 VGND.t111 ua[2].t7 VCR_0.VT.t4 VGND.t110 sky130_fd_pr__nfet_g5v0d10v5 ad=0 pd=0 as=0 ps=0 w=5 l=1
**devattr s=29000,1058 d=29000,1058
X98 a_14393_6107# a_14689_2607# VGND.t5 sky130_fd_pr__res_xhigh_po_0p35 l=15.5
X99 a_16597_7688.t17 a_16597_7688.t16 Timming_0.Vd.t12 VGND.t58 sky130_fd_pr__nfet_g5v0d10v5 ad=0 pd=0 as=0 ps=0 w=10 l=0.5
**devattr s=58000,2058 d=58000,2058
X100 a_8582_24056# COMP_2_0.vb.t4 a_8096_19998# VGND.t30 sky130_fd_pr__nfet_g5v0d10v5 ad=0.145 pd=1.58 as=0.145 ps=1.58 w=0.5 l=20
**devattr s=5800,316 d=5800,316
X101 a_7586_25675# a_9886_25971# VGND.t6 sky130_fd_pr__res_xhigh_po_0p35 l=9.5
X102 a_7124_24056# COMP_2_0.vb.t5 a_8096_19998# VGND.t49 sky130_fd_pr__nfet_g5v0d10v5 ad=0.145 pd=1.58 as=0.145 ps=1.58 w=0.5 l=20
**devattr s=5800,316 d=5800,316
X103 VCR_0.VT.t3 ua[2].t8 VGND.t90 VGND.t89 sky130_fd_pr__nfet_g5v0d10v5 ad=0 pd=0 as=0 ps=0 w=5 l=1
**devattr s=29000,1058 d=29000,1058
X104 ua[0].t2 a_21737_7899.t8 VAPWR.t33 VAPWR.t32 sky130_fd_pr__pfet_g5v0d10v5 ad=0 pd=0 as=0 ps=0 w=8.5 l=1
**devattr s=49300,1758 d=49300,1758
X105 a_14689_10265# a_14393_6765# VGND.t5 sky130_fd_pr__res_xhigh_po_0p35 l=15.5
X106 VGND.t36 a_5453_6767.t9 a_5453_6051.t0 VGND.t35 sky130_fd_pr__nfet_g5v0d10v5 ad=0 pd=0 as=0 ps=0 w=1 l=6
**devattr s=11600,516 d=11600,516
X107 a_16597_7688.t13 a_16597_7688.t12 Timming_0.Vd.t11 VGND.t97 sky130_fd_pr__nfet_g5v0d10v5 ad=0 pd=0 as=0 ps=0 w=10 l=0.5
**devattr s=58000,2058 d=58000,2058
X108 Timming_0.Vd.t10 a_16597_7688.t22 a_16597_7688.t23 VGND.t69 sky130_fd_pr__nfet_g5v0d10v5 ad=0 pd=0 as=0 ps=0 w=10 l=0.5
**devattr s=58000,2058 d=58000,2058
X109 a_9886_25379# a_12844_25379# VGND.t1 sky130_fd_pr__res_xhigh_po_0p35 l=9.5
X110 a_12179_10665# Timming_0.Vd.t27 latch_sch_0.Qn.t1 VAPWR.t2 sky130_fd_pr__pfet_g5v0d10v5 ad=0.145 pd=1.29 as=0 ps=0 w=1 l=0.5
**devattr s=11600,516 d=5800,258
X111 VGND.t119 a_5453_6767.t10 a_9039_8199.t4 VGND.t118 sky130_fd_pr__nfet_g5v0d10v5 ad=0 pd=0 as=0 ps=0 w=1 l=2.2
**devattr s=11600,516 d=11600,516
X112 a_17267_4669# ua[4].t0 ua[2].t0 VGND.t98 sky130_fd_pr__nfet_05v0_nvt ad=0.29 pd=2.58 as=0 ps=0 w=1 l=10
**devattr s=11600,516 d=11600,516
X113 a_9886_26859# a_12844_26563# VGND.t1 sky130_fd_pr__res_xhigh_po_0p35 l=9.5
X114 a_7586_27451# a_9886_27451# VGND.t6 sky130_fd_pr__res_xhigh_po_0p35 l=9.5
X115 a_9554_24056# COMP_2_0.vb.t6 a_9068_19998# VGND.t13 sky130_fd_pr__nfet_g5v0d10v5 ad=0.145 pd=1.58 as=0.145 ps=1.58 w=0.5 l=20
**devattr s=5800,316 d=5800,316
X116 a_16597_7688.t31 a_16597_7688.t30 Timming_0.Vd.t9 VGND.t34 sky130_fd_pr__nfet_g5v0d10v5 ad=0 pd=0 as=0 ps=0 w=10 l=0.5
**devattr s=58000,2058 d=58000,2058
X117 a_8582_24056# COMP_2_0.vb.t7 a_9068_19998# VGND.t44 sky130_fd_pr__nfet_g5v0d10v5 ad=0.145 pd=1.58 as=0.145 ps=1.58 w=0.5 l=20
**devattr s=5800,316 d=5800,316
X118 BIAS_1_0.XQ4.Emitter.t1 a_11329_22619.t3 a_11329_22619.t4 VGND.t22 sky130_fd_pr__nfet_g5v0d10v5 ad=0 pd=0 as=0 ps=0 w=3 l=20
**devattr s=34800,1316 d=34800,1316
X119 COMP_2_0.vin_n.t1 a_6064_20056# a_6064_20056# VGND.t96 sky130_fd_pr__nfet_g5v0d10v5 ad=0 pd=0 as=0.145 ps=1.58 w=0.5 l=20
**devattr s=5800,316 d=5800,316
X120 BIAS_1_0.XQ4.Emitter.t0 a_11329_22619.t5 a_11329_22619.t6 VGND.t107 sky130_fd_pr__nfet_g5v0d10v5 ad=0 pd=0 as=0 ps=0 w=3 l=20
**devattr s=34800,1316 d=34800,1316
X121 VGND.t113 a_5453_6767.t4 a_5453_6767.t5 VGND.t35 sky130_fd_pr__nfet_g5v0d10v5 ad=0 pd=0 as=0 ps=0 w=1 l=6
**devattr s=11600,516 d=11600,516
X122 a_7586_25083# a_9886_25083# VGND.t6 sky130_fd_pr__res_xhigh_po_0p35 l=9.5
X123 delay_1_0.vd_n.t3 VGND.t0 sky130_fd_pr__cap_mim_m3_1 l=30 w=30
X124 VAPWR.t35 a_21737_7899.t9 ua[0].t1 VAPWR.t34 sky130_fd_pr__pfet_g5v0d10v5 ad=0 pd=0 as=0 ps=0 w=8.5 l=1
**devattr s=49300,1758 d=49300,1758
X125 a_16597_7688.t1 a_16597_7688.t0 Timming_0.Vd.t8 VGND.t53 sky130_fd_pr__nfet_g5v0d10v5 ad=0 pd=0 as=0 ps=0 w=10 l=0.5
**devattr s=58000,2058 d=58000,2058
X126 a_16597_7688.t11 a_16597_7688.t10 Timming_0.Vd.t7 VGND.t105 sky130_fd_pr__nfet_g5v0d10v5 ad=0 pd=0 as=0 ps=0 w=10 l=0.5
**devattr s=58000,2058 d=58000,2058
X127 VGND.t78 VGND.t80 BIAS_1_0.XQ12.Emitter sky130_fd_pr__pnp_05v5_W3p40L3p40
**devattr s=462400,2720
X128 a_9554_24056# COMP_2_0.vb.t8 a_10040_19998# VGND.t68 sky130_fd_pr__nfet_g5v0d10v5 ad=0.145 pd=1.58 as=0.145 ps=1.58 w=0.5 l=20
**devattr s=5800,316 d=5800,316
X129 a_11329_22619.t1 a_6404_16954.t7 a_10404_14647.t3 VAPWR.t3 sky130_fd_pr__pfet_g5v0d10v5 ad=0 pd=0 as=0 ps=0 w=10 l=20
**devattr s=116000,4116 d=116000,4116
X130 a_20802_14722.t0 VGND.t132 a_10404_14647.t9 VAPWR.t11 sky130_fd_pr__pfet_g5v0d10v5 ad=0 pd=0 as=0 ps=0 w=0.5 l=20
**devattr s=5800,316 d=5800,316
X131 a_9577_9007.t0 COMP_2_0.vb.t9 a_6061_11160.t4 VAPWR.t13 sky130_fd_pr__pfet_g5v0d10v5 ad=0 pd=0 as=0 ps=0 w=2 l=20
**devattr s=23200,916 d=23200,916
X132 a_5154_41806# a_5450_35748# VGND.t10 sky130_fd_pr__res_xhigh_po_0p35 l=25
X133 a_7586_26267# a_9886_26563# VGND.t6 sky130_fd_pr__res_xhigh_po_0p35 l=9.5
X134 a_10404_14647.t2 a_6404_16954.t8 COMP_2_0.vb.t1 VAPWR.t6 sky130_fd_pr__pfet_g5v0d10v5 ad=0 pd=0 as=0 ps=0 w=1.5 l=20
**devattr s=17400,716 d=17400,716
X135 a_21737_7899.t0 ua[1].t0 a_21737_5649# VGND.t14 sky130_fd_pr__nfet_05v0_nvt ad=0 pd=0 as=2.9 ps=20.58 w=10 l=9
**devattr s=116000,4116 d=116000,4116
X136 VGND.t41 ua[2].t9 VCR_0.VT.t2 VGND.t40 sky130_fd_pr__nfet_g5v0d10v5 ad=0 pd=0 as=0 ps=0 w=5 l=1
**devattr s=29000,1058 d=29000,1058
X137 a_17267_4669# ua[4].t1 a_16681_2611# VGND.t51 sky130_fd_pr__nfet_05v0_nvt ad=0.29 pd=2.58 as=0.29 ps=2.58 w=1 l=10
**devattr s=11600,516 d=11600,516
X138 a_21737_3791# a_21737_7899.t10 VCR_0.VT.t10 VGND.t124 sky130_fd_pr__nfet_05v0_nvt ad=2.9 pd=20.58 as=0 ps=0 w=10 l=9
**devattr s=116000,4116 d=116000,4116
X139 VCR_0.VT.t1 ua[2].t10 VGND.t127 VGND.t126 sky130_fd_pr__nfet_g5v0d10v5 ad=0 pd=0 as=0 ps=0 w=5 l=1
**devattr s=58000,2116 d=29000,1058
X140 a_7124_24056# COMP_2_0.vb.t2 COMP_2_0.vb.t3 VGND.t120 sky130_fd_pr__nfet_g5v0d10v5 ad=0.145 pd=1.58 as=0 ps=0 w=0.5 l=20
**devattr s=5800,316 d=5800,316
X141 a_9039_8199.t1 a_9039_8199.t0 a_9577_9007.t3 VAPWR.t27 sky130_fd_pr__pfet_g5v0d10v5 ad=0 pd=0 as=0 ps=0 w=2.5 l=2.4
**devattr s=29000,1116 d=29000,1116
X142 a_7124_24056# a_6064_20056# a_6638_19998# VGND.t95 sky130_fd_pr__nfet_g5v0d10v5 ad=0.145 pd=1.58 as=0.145 ps=1.58 w=0.5 l=20
**devattr s=5800,316 d=5800,316
X143 delay_1_0.vd_n.t4 VGND.t108 sky130_fd_pr__cap_mim_m3_1 l=30 w=30
X144 a_15577_6107# a_15873_2607# VGND.t25 sky130_fd_pr__res_xhigh_po_0p35 l=15.5
X145 a_16169_6107# ua[4].t2 a_16681_2611# VGND.t76 sky130_fd_pr__nfet_05v0_nvt ad=0.29 pd=2.58 as=0.29 ps=2.58 w=1 l=10
**devattr s=11600,516 d=11600,516
X146 VCR_0.VT.t0 ua[2].t11 VGND.t66 VGND.t65 sky130_fd_pr__nfet_g5v0d10v5 ad=0 pd=0 as=0 ps=0 w=5 l=1
**devattr s=29000,1058 d=29000,1058
X147 a_2786_41806# a_3082_35748# VGND.t9 sky130_fd_pr__res_xhigh_po_0p35 l=25
X148 a_5154_41806# a_5154_35748# VGND.t72 sky130_fd_pr__res_xhigh_po_0p35 l=25
X149 a_15873_10265# a_15577_6765# VGND.t25 sky130_fd_pr__res_xhigh_po_0p35 l=15.5
X150 a_5453_6767.t2 a_5453_6051.t10 VGND.t92 VGND.t46 sky130_fd_pr__nfet_g5v0d10v5 ad=0 pd=0 as=0 ps=0 w=1 l=6
**devattr s=11600,516 d=11600,516
X151 a_4562_41806# a_4562_35748# VGND.t17 sky130_fd_pr__res_xhigh_po_0p35 l=25
X152 VGND.t70 VGND.t71 VGND.t6 sky130_fd_pr__res_xhigh_po_0p35 l=9.5
X153 a_14985_6107# a_14689_2607# VGND.t15 sky130_fd_pr__res_xhigh_po_0p35 l=15.5
X154 a_3970_41806# a_3970_35748# VGND.t16 sky130_fd_pr__res_xhigh_po_0p35 l=25
X155 a_7586_25675# a_9886_25675# VGND.t6 sky130_fd_pr__res_xhigh_po_0p35 l=9.5
X156 Timming_0.Vd.t6 a_16597_7688.t32 a_16597_7688.t33 VGND.t2 sky130_fd_pr__nfet_g5v0d10v5 ad=0 pd=0 as=0 ps=0 w=10 l=0.5
**devattr s=58000,2058 d=58000,2058
X157 a_21737_7899.t2 a_21737_7899.t1 VAPWR.t30 VAPWR.t29 sky130_fd_pr__pfet_g5v0d10v5 ad=0 pd=0 as=0 ps=0 w=4 l=1
**devattr s=46400,1716 d=46400,1716
X158 a_14689_10265# a_14985_6765# VGND.t15 sky130_fd_pr__res_xhigh_po_0p35 l=15.5
X159 a_10404_14647.t4 a_6404_16954.t9 COMP_2_0.vb.t0 VAPWR.t6 sky130_fd_pr__pfet_g5v0d10v5 ad=0 pd=0 as=0 ps=0 w=1.5 l=20
**devattr s=17400,716 d=17400,716
X160 Timming_0.Vd.t5 a_16597_7688.t26 a_16597_7688.t27 VGND.t123 sky130_fd_pr__nfet_g5v0d10v5 ad=0 pd=0 as=0 ps=0 w=10 l=0.5
**devattr s=58000,2058 d=58000,2058
X161 a_16597_7688.t29 a_16597_7688.t28 Timming_0.Vd.t4 VGND.t57 sky130_fd_pr__nfet_g5v0d10v5 ad=0 pd=0 as=0 ps=0 w=10 l=0.5
**devattr s=58000,2058 d=58000,2058
X162 VGND.t78 VGND.t77 BIAS_1_0.XQ4.Emitter.t2 sky130_fd_pr__pnp_05v5_W3p40L3p40
**devattr s=462400,2720
X163 a_6404_16954.t1 a_11329_22619.t8 a_11336_20947# VGND.t52 sky130_fd_pr__nfet_g5v0d10v5 ad=0 pd=0 as=1.45 ps=10.58 w=5 l=20
**devattr s=58000,2116 d=58000,2116
X164 a_9577_9007.t1 delay_1_0.vd_n.t5 VAPWR.t25 VAPWR.t24 sky130_fd_pr__pfet_g5v0d10v5 ad=0 pd=0 as=0 ps=0 w=1 l=10.05
**devattr s=11600,516 d=11600,516
X165 a_3970_41806# a_4266_35748# VGND.t8 sky130_fd_pr__res_xhigh_po_0p35 l=25
X166 delay_1_0.vd_n.t6 VGND.t87 sky130_fd_pr__cap_mim_m3_1 l=30 w=30
X167 a_5453_6051.t2 a_5453_6051.t1 VGND.t117 VGND.t46 sky130_fd_pr__nfet_g5v0d10v5 ad=0 pd=0 as=0 ps=0 w=1 l=6
**devattr s=11600,516 d=11600,516
X168 a_21737_5649# ua[1].t1 a_21737_3791# VGND.t14 sky130_fd_pr__nfet_05v0_nvt ad=2.9 pd=20.58 as=2.9 ps=20.58 w=10 l=9
**devattr s=116000,4116 d=116000,4116
X169 a_3378_41806# a_3674_35748# VGND.t12 sky130_fd_pr__res_xhigh_po_0p35 l=25
X170 COMP_2_0.vin_n.t0 a_6064_20056# a_6638_19998# VGND.t94 sky130_fd_pr__nfet_g5v0d10v5 ad=0 pd=0 as=0.145 ps=1.58 w=0.5 l=20
**devattr s=5800,316 d=5800,316
X171 VAPWR.t19 a_21737_7899.t11 ua[0].t0 VAPWR.t18 sky130_fd_pr__pfet_g5v0d10v5 ad=0 pd=0 as=0 ps=0 w=8.5 l=1
**devattr s=49300,1758 d=98600,3516
X172 a_7586_26859# a_9886_27155# VGND.t6 sky130_fd_pr__res_xhigh_po_0p35 l=9.5
X173 Timming_0.Vd.t3 a_16597_7688.t42 a_16597_7688.t43 VGND.t50 sky130_fd_pr__nfet_g5v0d10v5 ad=0 pd=0 as=0 ps=0 w=10 l=0.5
**devattr s=58000,2058 d=58000,2058
X174 a_10404_14647.t8 a_6404_16954.t10 a_6064_20056# VAPWR.t6 sky130_fd_pr__pfet_g5v0d10v5 ad=0 pd=0 as=0.87 ps=6.58 w=3 l=20
**devattr s=34800,1316 d=34800,1316
X175 a_6061_11160.t0 COMP_2_0.vin_n.t3 a_5453_6051.t6 VAPWR.t0 sky130_fd_pr__pfet_g5v0d10v5 ad=0 pd=0 as=0 ps=0 w=2.5 l=2.4
**devattr s=29000,1116 d=29000,1116
X176 a_18714_5807# a_19010_2607# VGND.t88 sky130_fd_pr__res_xhigh_po_0p35 l=14
X177 VGND.t100 VGND.t101 VGND.t6 sky130_fd_pr__res_xhigh_po_0p35 l=9.5
X178 VGND.t78 VGND.t79 BIAS_1_0.XQ12.Emitter sky130_fd_pr__pnp_05v5_W3p40L3p40
**devattr s=462400,2720
X179 VGND.t29 COMP_2_0.vb.t10 a_10040_19998# VGND.t28 sky130_fd_pr__nfet_g5v0d10v5 ad=0 pd=0 as=0.145 ps=1.58 w=0.5 l=20
**devattr s=5800,316 d=5800,316
X180 Timming_0.Vd.t2 a_16597_7688.t24 a_16597_7688.t25 VGND.t112 sky130_fd_pr__nfet_g5v0d10v5 ad=0 pd=0 as=0 ps=0 w=10 l=0.5
**devattr s=58000,2058 d=58000,2058
X181 a_8279_30718# VGND.t133 a_5450_30348# VAPWR.t12 sky130_fd_pr__pfet_g5v0d10v5 ad=0.29 pd=2.58 as=0.29 ps=2.58 w=1 l=10
**devattr s=11600,516 d=11600,516
X182 a_19306_5807# a_19010_2607# VGND.t99 sky130_fd_pr__res_xhigh_po_0p35 l=14
R0 a_9039_8199.n4 a_9039_8199.t3 95.9785
R1 a_9039_8199.t1 a_9039_8199.n12 95.9785
R2 a_9039_8199.n2 a_9039_8199.t4 91.4057
R3 a_9039_8199.n1 a_9039_8199.t5 27.9381
R4 a_9039_8199.n8 a_9039_8199.t6 27.4879
R5 a_9039_8199.n10 a_9039_8199.t0 27.3045
R6 a_9039_8199.n5 a_9039_8199.t2 27.3045
R7 a_9039_8199.n2 a_9039_8199.n0 5.45874
R8 a_9039_8199.n3 a_9039_8199.n2 3.2055
R9 a_9039_8199.n7 a_9039_8199.n1 1.86015
R10 a_9039_8199.n9 a_9039_8199.n8 1.69168
R11 a_9039_8199.n5 a_9039_8199.n4 1.47566
R12 a_9039_8199.n12 a_9039_8199.n11 1.27624
R13 a_9039_8199.n10 a_9039_8199.n0 0.96686
R14 a_9039_8199.n6 a_9039_8199.n3 0.789175
R15 a_9039_8199.n8 a_9039_8199.n7 0.4575
R16 a_9039_8199.n9 a_9039_8199.n1 0.4345
R17 a_9039_8199.n4 a_9039_8199.n3 0.25257
R18 a_9039_8199.n12 a_9039_8199.n0 0.25257
R19 a_9039_8199.n11 a_9039_8199.n10 0.189054
R20 a_9039_8199.n6 a_9039_8199.n5 0.189054
R21 a_9039_8199.n11 a_9039_8199.n9 0.0222391
R22 a_9039_8199.n7 a_9039_8199.n6 0.0113696
R23 a_9577_9007.n3 a_9577_9007.t1 231.671
R24 a_9577_9007.t0 a_9577_9007.n3 113.957
R25 a_9577_9007.n1 a_9577_9007.t5 100.364
R26 a_9577_9007.n0 a_9577_9007.t4 100.364
R27 a_9577_9007.n1 a_9577_9007.t3 97.7554
R28 a_9577_9007.n0 a_9577_9007.t2 97.7554
R29 a_9577_9007.n3 a_9577_9007.n2 1.91964
R30 a_9577_9007.n2 a_9577_9007.n1 0.995692
R31 a_9577_9007.n2 a_9577_9007.n0 0.995692
R32 VAPWR.n330 VAPWR.n197 6556.97
R33 VAPWR.n277 VAPWR.n236 6556.97
R34 VAPWR.n328 VAPWR.n198 6556.97
R35 VAPWR.n321 VAPWR.n239 6556.97
R36 VAPWR.n290 VAPWR.n261 5413.04
R37 VAPWR.n261 VAPWR.n257 5413.04
R38 VAPWR.n260 VAPWR.n257 5413.04
R39 VAPWR.n290 VAPWR.n260 5413.04
R40 VAPWR.n259 VAPWR.n255 5181.1
R41 VAPWR.n291 VAPWR.n255 5181.1
R42 VAPWR.n291 VAPWR.n254 5181.1
R43 VAPWR.n259 VAPWR.n254 5181.1
R44 VAPWR.n145 VAPWR.n19 4984.55
R45 VAPWR.n145 VAPWR.n20 4984.55
R46 VAPWR.n88 VAPWR.n20 4984.55
R47 VAPWR.n88 VAPWR.n19 4984.55
R48 VAPWR.n212 VAPWR.n211 4689.72
R49 VAPWR.n220 VAPWR.n203 4689.72
R50 VAPWR.n430 VAPWR.n400 4302.52
R51 VAPWR.n430 VAPWR.n401 4302.52
R52 VAPWR.n428 VAPWR.n401 4302.52
R53 VAPWR.n428 VAPWR.n400 4302.52
R54 VAPWR.n235 VAPWR.n198 4251.41
R55 VAPWR.n236 VAPWR.n235 4251.41
R56 VAPWR.n324 VAPWR.n196 4251.41
R57 VAPWR.n324 VAPWR.n323 4251.41
R58 VAPWR.n323 VAPWR.n322 4251.41
R59 VAPWR.n322 VAPWR.n232 4251.41
R60 VAPWR.n238 VAPWR.n197 4251.41
R61 VAPWR.n321 VAPWR.n238 4251.41
R62 VAPWR.n205 VAPWR.n202 4194.41
R63 VAPWR.n206 VAPWR.n205 4194.41
R64 VAPWR.n154 VAPWR.n5 2832.31
R65 VAPWR.n153 VAPWR.n5 2832.31
R66 VAPWR.n154 VAPWR.n6 2832.31
R67 VAPWR.n153 VAPWR.n6 2832.31
R68 VAPWR.n366 VAPWR.n365 2822.48
R69 VAPWR.n350 VAPWR.n349 2822.48
R70 VAPWR.n304 VAPWR.n298 2812.66
R71 VAPWR.n301 VAPWR.n300 2812.66
R72 VAPWR.n173 VAPWR.n171 2310.18
R73 VAPWR.n175 VAPWR.n171 2310.18
R74 VAPWR.n175 VAPWR.n170 2310.18
R75 VAPWR.n173 VAPWR.n170 2310.18
R76 VAPWR.n330 VAPWR.n196 2305.55
R77 VAPWR.n277 VAPWR.n232 2305.55
R78 VAPWR.n328 VAPWR.n196 2305.55
R79 VAPWR.n235 VAPWR.n230 2305.55
R80 VAPWR.n323 VAPWR.n230 2305.55
R81 VAPWR.n323 VAPWR.n231 2305.55
R82 VAPWR.n238 VAPWR.n231 2305.55
R83 VAPWR.n239 VAPWR.n232 2305.55
R84 VAPWR.n358 VAPWR.n347 2285.9
R85 VAPWR.n366 VAPWR.n347 2285.9
R86 VAPWR.n349 VAPWR.n348 2285.9
R87 VAPWR.n361 VAPWR.n348 2285.9
R88 VAPWR.n208 VAPWR.n207 1831.13
R89 VAPWR.n424 VAPWR.n405 1643.17
R90 VAPWR.n404 VAPWR.n403 1643.17
R91 VAPWR.n107 VAPWR.n58 1623.52
R92 VAPWR.n107 VAPWR.n61 1623.52
R93 VAPWR.n80 VAPWR.n61 1623.52
R94 VAPWR.n80 VAPWR.n58 1623.52
R95 VAPWR.n131 VAPWR.n22 1623.52
R96 VAPWR.n131 VAPWR.n23 1623.52
R97 VAPWR.n143 VAPWR.n22 1623.52
R98 VAPWR.n143 VAPWR.n23 1623.52
R99 VAPWR.n125 VAPWR.n44 1623.52
R100 VAPWR.n44 VAPWR.n43 1623.52
R101 VAPWR.n125 VAPWR.n34 1623.52
R102 VAPWR.n43 VAPWR.n34 1623.52
R103 VAPWR.n30 VAPWR.n21 1623.52
R104 VAPWR.n134 VAPWR.n21 1623.52
R105 VAPWR.n134 VAPWR.n133 1623.52
R106 VAPWR.n133 VAPWR.n30 1623.52
R107 VAPWR.n126 VAPWR.n39 1623.52
R108 VAPWR.n42 VAPWR.n39 1623.52
R109 VAPWR.n42 VAPWR.n38 1623.52
R110 VAPWR.n126 VAPWR.n38 1623.52
R111 VAPWR.n109 VAPWR.n60 1623.52
R112 VAPWR.n110 VAPWR.n109 1623.52
R113 VAPWR.n110 VAPWR.n59 1623.52
R114 VAPWR.n60 VAPWR.n59 1623.52
R115 VAPWR.n92 VAPWR.n74 1623.52
R116 VAPWR.n94 VAPWR.n73 1623.52
R117 VAPWR.n94 VAPWR.n74 1623.52
R118 VAPWR.n78 VAPWR.n77 1623.52
R119 VAPWR.n79 VAPWR.n72 1623.52
R120 VAPWR.n79 VAPWR.n78 1623.52
R121 VAPWR.n367 VAPWR.t26 1391.5
R122 VAPWR.n367 VAPWR.t12 1391.5
R123 VAPWR.n359 VAPWR.n350 942.51
R124 VAPWR.n365 VAPWR.n360 942.51
R125 VAPWR.n304 VAPWR.n303 938.761
R126 VAPWR.n302 VAPWR.n301 938.761
R127 VAPWR.n325 VAPWR.n229 814.307
R128 VAPWR.n233 VAPWR.n229 814.307
R129 VAPWR.n216 VAPWR.n201 804.519
R130 VAPWR.n326 VAPWR.n325 803.389
R131 VAPWR.n279 VAPWR.n233 801.13
R132 VAPWR.n222 VAPWR.n201 800.378
R133 VAPWR.t6 VAPWR.n256 792.155
R134 VAPWR.t6 VAPWR.n258 792.155
R135 VAPWR.n287 VAPWR.n286 740.268
R136 VAPWR.n240 VAPWR.n195 722.362
R137 VAPWR.n251 VAPWR.n250 691.201
R138 VAPWR.n286 VAPWR.n253 615.467
R139 VAPWR.n403 VAPWR.n402 556.174
R140 VAPWR.n425 VAPWR.n424 556.174
R141 VAPWR.n368 VAPWR.n347 536.587
R142 VAPWR.n368 VAPWR.n348 536.587
R143 VAPWR.n212 VAPWR.n202 495.31
R144 VAPWR.n220 VAPWR.n202 495.31
R145 VAPWR.n214 VAPWR.n206 495.31
R146 VAPWR.n218 VAPWR.n206 495.31
R147 VAPWR.n266 VAPWR.n229 446.118
R148 VAPWR.n241 VAPWR.n229 446.118
R149 VAPWR.n242 VAPWR.n241 438.589
R150 VAPWR.n267 VAPWR.n266 431.06
R151 VAPWR.n329 VAPWR.t3 411.135
R152 VAPWR.n234 VAPWR.t3 411.135
R153 VAPWR.t1 VAPWR.n234 411.135
R154 VAPWR.t1 VAPWR.n237 411.135
R155 VAPWR.t2 VAPWR.n171 293.449
R156 VAPWR.t31 VAPWR.n170 290.765
R157 VAPWR.n17 VAPWR.n14 254.031
R158 VAPWR.n276 VAPWR.n275 230.196
R159 VAPWR.n159 VAPWR.t25 229.987
R160 VAPWR.n313 VAPWR.t5 229.881
R161 VAPWR.n289 VAPWR.n288 216.928
R162 VAPWR.n208 VAPWR.n200 213.859
R163 VAPWR.t36 VAPWR.t31 212.006
R164 VAPWR.t7 VAPWR.t2 212.006
R165 VAPWR.n180 VAPWR.n179 204.71
R166 VAPWR.n292 VAPWR.n253 203.873
R167 VAPWR.n209 VAPWR.n207 189.806
R168 VAPWR.n269 VAPWR.n268 172.35
R169 VAPWR.n289 VAPWR.n262 166.397
R170 VAPWR.n268 VAPWR.n267 161.91
R171 VAPWR.n267 VAPWR.n265 161.91
R172 VAPWR.n129 VAPWR.n24 140.048
R173 VAPWR.n128 VAPWR.n36 140.048
R174 VAPWR.t13 VAPWR.n7 136.625
R175 VAPWR.n141 VAPWR.n24 136.282
R176 VAPWR.n129 VAPWR.n35 136.282
R177 VAPWR.n36 VAPWR.n25 136.282
R178 VAPWR.n128 VAPWR.n127 136.282
R179 VAPWR.n55 VAPWR.n35 134.4
R180 VAPWR.n127 VAPWR.n37 134.4
R181 VAPWR.t15 VAPWR.n41 122.63
R182 VAPWR.t15 VAPWR.n31 122.63
R183 VAPWR.n132 VAPWR.t0 122.63
R184 VAPWR.n144 VAPWR.t0 122.63
R185 VAPWR.n285 VAPWR.n283 118.442
R186 VAPWR.n147 VAPWR.n17 118.338
R187 VAPWR.t16 VAPWR.n401 115.294
R188 VAPWR.n283 VAPWR.n282 114.121
R189 VAPWR.t18 VAPWR.n426 108.915
R190 VAPWR.n174 VAPWR.t36 107.346
R191 VAPWR.t9 VAPWR.t18 106.844
R192 VAPWR.t38 VAPWR.t9 106.844
R193 VAPWR.t32 VAPWR.t38 106.844
R194 VAPWR.t22 VAPWR.t20 106.844
R195 VAPWR.t20 VAPWR.t34 106.844
R196 VAPWR.t34 VAPWR.t16 106.844
R197 VAPWR.n370 VAPWR.n369 105.412
R198 VAPWR.n174 VAPWR.t7 104.662
R199 VAPWR.n279 VAPWR.n278 102.572
R200 VAPWR.n369 VAPWR.n346 102.025
R201 VAPWR.n363 VAPWR.n345 99.4821
R202 VAPWR.n357 VAPWR.n356 98.6135
R203 VAPWR.t27 VAPWR.n82 97.9161
R204 VAPWR.n81 VAPWR.t28 97.9161
R205 VAPWR.n364 VAPWR.n362 97.0916
R206 VAPWR.n355 VAPWR.n354 96.1993
R207 VAPWR.n427 VAPWR.n398 93.7086
R208 VAPWR.n445 VAPWR.n384 78.8342
R209 VAPWR.n280 VAPWR.n279 77.3125
R210 VAPWR.n318 VAPWR.n246 76.9712
R211 VAPWR.n370 VAPWR.n345 72.6171
R212 VAPWR.n357 VAPWR.n343 71.6805
R213 VAPWR.n362 VAPWR.n346 70.2194
R214 VAPWR.n354 VAPWR.n353 69.3741